
This summary information was generated by ElastoDyn on 01-Oct-2019 at 22:11:42.


Turbine features:

            Upwind, three-bladed rotor with rigid hub.
            The model has 10 of 24 DOFs active (enabled) at start-up.
 Disabled   Platform horizontal surge translation DOF 
 Disabled   Platform horizontal sway translation DOF 
 Disabled   Platform vertical heave translation DOF 
 Disabled   Platform roll tilt rotation DOF 
 Disabled   Platform pitch tilt rotation DOF 
 Disabled   Platform yaw rotation DOF 
 Disabled   1st tower fore-aft bending mode DOF 
 Disabled   1st tower side-to-side bending mode DOF 
 Disabled   2nd tower fore-aft bending mode DOF 
 Disabled   2nd tower side-to-side bending mode DOF 
 Disabled   Nacelle yaw DOF 
 Disabled   Rotor-furl DOF 
 Enabled    Variable speed generator DOF 
 Disabled   Drivetrain rotational-flexibility DOF 
 Disabled   Tail-furl DOF 
 Enabled    1st flapwise bending-mode DOF of blade 1 
 Enabled    1st edgewise bending-mode DOF of blade 1 
 Enabled    2nd flapwise bending-mode DOF of blade 1 
 Enabled    1st flapwise bending-mode DOF of blade 2 
 Enabled    1st edgewise bending-mode DOF of blade 2 
 Enabled    2nd flapwise bending-mode DOF of blade 2 
 Enabled    1st flapwise bending-mode DOF of blade 3 
 Enabled    1st edgewise bending-mode DOF of blade 3 
 Enabled    2nd flapwise bending-mode DOF of blade 3 


Time steps:

    Structural            (s)        0.01000000


Some calculated parameters:

    Hub-Height            (m)           149.493
    Flexible Tower Length (m)           130.530
    Flexible Blade Length (m)           117.000


Rotor mass properties:

    Rotor Mass            (kg)       380891.037
    Rotor Inertia         (kg-m^2)354810226.448
                                        Blade 1      Blade 2      Blade 3
                                        -------      -------      -------
    Mass                  (kg)        67353.012    67353.012    67353.012
    Second Mass Moment    (kg-m^2)106586840.347106586840.347106586840.347
    First Mass Moment     (kg-m)    1901930.941  1901930.941  1901930.941
    Center of Mass        (m)            28.238       28.238       28.238


Additional mass properties:

    Tower-top Mass        (kg)      1631636.037
    Tower Mass            (kg)       968478.762
    Platform Mass         (kg)            0.000
    Mass Incl. Platform   (kg)      2600114.799


Interpolated tower properties:

Node  TwFract   HNodes  DHNodes  TMassDen    FAStiff    SSStiff
 (-)      (-)      (m)      (m)    (kg/m)     (Nm^2)     (Nm^2)
   1    0.025    3.263    6.527 10824.177  3.372E+12  3.372E+12
   2    0.075    9.790    6.527 10568.320  3.202E+12  3.202E+12
   3    0.125   16.316    6.527 10277.774  3.020E+12  3.020E+12
   4    0.175   22.843    6.527  9897.035  2.810E+12  2.810E+12
   5    0.225   29.369    6.527  9516.191  2.600E+12  2.600E+12
   6    0.275   35.896    6.527  9133.549  2.405E+12  2.405E+12
   7    0.325   42.422    6.527  8750.907  2.210E+12  2.210E+12
   8    0.375   48.949    6.527  8365.510  2.036E+12  2.036E+12
   9    0.425   55.475    6.527  7979.562  1.866E+12  1.866E+12
  10    0.475   62.002    6.527  7574.527  1.696E+12  1.696E+12
  11    0.525   68.528    6.527  7157.347  1.527E+12  1.527E+12
  12    0.575   75.055    6.527  6739.116  1.366E+12  1.366E+12
  13    0.625   81.581    6.527  6319.235  1.218E+12  1.218E+12
  14    0.675   88.108    6.527  5903.952  1.077E+12  1.077E+12
  15    0.725   94.634    6.527  5511.662  9.691E+11  9.691E+11
  16    0.775  101.161    6.527  5119.373  8.611E+11  8.611E+11
  17    0.825  107.687    6.527  4898.364  7.729E+11  7.729E+11
  18    0.875  114.214    6.527  4687.430  6.858E+11  6.858E+11
  19    0.925  120.740    6.527  4602.260  6.316E+11  6.316E+11
  20    0.975  127.267    6.527  4565.461  5.902E+11  5.902E+11


Interpolated blade 1 properties:

Node  BlFract   RNodes  DRNodes PitchAxis  StrcTwst  BMassDen    FlpStff    EdgStff
 (-)      (-)      (m)      (m)       (-)     (deg)    (kg/m)     (Nm^2)     (Nm^2)
   1    0.029    6.441    6.882     0.482    15.507  2698.778  1.343E+11  1.312E+11
   2    0.088   13.324    6.882     0.429    14.608  1845.577  7.901E+10  8.016E+10
   3    0.147   20.206    6.882     0.378    12.929  1047.621  3.875E+10  4.054E+10
   4    0.206   27.088    6.882     0.339    11.141   595.225  2.475E+10  2.061E+10
   5    0.265   33.971    6.882     0.319     9.278   465.255  1.827E+10  1.376E+10
   6    0.324   40.853    6.882     0.309     7.221   427.418  1.467E+10  1.078E+10
   7    0.382   47.735    6.882     0.303     5.266   409.694  1.161E+10  9.066E+09
   8    0.441   54.618    6.882     0.295     3.520   387.144  8.921E+09  7.637E+09
   9    0.500   61.500    6.882     0.289     1.796   361.416  6.437E+09  6.233E+09
  10    0.559   68.382    6.882     0.288     0.394   334.750  4.456E+09  4.953E+09
  11    0.618   75.265    6.882     0.290    -0.409   306.876  2.990E+09  3.872E+09
  12    0.676   82.147    6.882     0.296    -0.859   270.162  1.864E+09  2.925E+09
  13    0.735   89.029    6.882     0.304    -1.187   225.059  1.064E+09  2.115E+09
  14    0.794   95.912    6.882     0.313    -1.525   179.877  5.717E+08  1.469E+09
  15    0.853  102.794    6.882     0.324    -1.917   122.196  2.800E+08  7.711E+08
  16    0.912  109.676    6.882     0.338    -2.316    75.727  1.127E+08  4.311E+08
  17    0.971  116.559    6.882     0.357    -2.720    33.558  2.840E+07  1.429E+08


Interpolated blade 2 properties:

Node  BlFract   RNodes  DRNodes PitchAxis  StrcTwst  BMassDen    FlpStff    EdgStff
 (-)      (-)      (m)      (m)       (-)     (deg)    (kg/m)     (Nm^2)     (Nm^2)
   1    0.029    6.441    6.882     0.482    15.507  2698.778  1.343E+11  1.312E+11
   2    0.088   13.324    6.882     0.429    14.608  1845.577  7.901E+10  8.016E+10
   3    0.147   20.206    6.882     0.378    12.929  1047.621  3.875E+10  4.054E+10
   4    0.206   27.088    6.882     0.339    11.141   595.225  2.475E+10  2.061E+10
   5    0.265   33.971    6.882     0.319     9.278   465.255  1.827E+10  1.376E+10
   6    0.324   40.853    6.882     0.309     7.221   427.418  1.467E+10  1.078E+10
   7    0.382   47.735    6.882     0.303     5.266   409.694  1.161E+10  9.066E+09
   8    0.441   54.618    6.882     0.295     3.520   387.144  8.921E+09  7.637E+09
   9    0.500   61.500    6.882     0.289     1.796   361.416  6.437E+09  6.233E+09
  10    0.559   68.382    6.882     0.288     0.394   334.750  4.456E+09  4.953E+09
  11    0.618   75.265    6.882     0.290    -0.409   306.876  2.990E+09  3.872E+09
  12    0.676   82.147    6.882     0.296    -0.859   270.162  1.864E+09  2.925E+09
  13    0.735   89.029    6.882     0.304    -1.187   225.059  1.064E+09  2.115E+09
  14    0.794   95.912    6.882     0.313    -1.525   179.877  5.717E+08  1.469E+09
  15    0.853  102.794    6.882     0.324    -1.917   122.196  2.800E+08  7.711E+08
  16    0.912  109.676    6.882     0.338    -2.316    75.727  1.127E+08  4.311E+08
  17    0.971  116.559    6.882     0.357    -2.720    33.558  2.840E+07  1.429E+08


Interpolated blade 3 properties:

Node  BlFract   RNodes  DRNodes PitchAxis  StrcTwst  BMassDen    FlpStff    EdgStff
 (-)      (-)      (m)      (m)       (-)     (deg)    (kg/m)     (Nm^2)     (Nm^2)
   1    0.029    6.441    6.882     0.482    15.507  2698.778  1.343E+11  1.312E+11
   2    0.088   13.324    6.882     0.429    14.608  1845.577  7.901E+10  8.016E+10
   3    0.147   20.206    6.882     0.378    12.929  1047.621  3.875E+10  4.054E+10
   4    0.206   27.088    6.882     0.339    11.141   595.225  2.475E+10  2.061E+10
   5    0.265   33.971    6.882     0.319     9.278   465.255  1.827E+10  1.376E+10
   6    0.324   40.853    6.882     0.309     7.221   427.418  1.467E+10  1.078E+10
   7    0.382   47.735    6.882     0.303     5.266   409.694  1.161E+10  9.066E+09
   8    0.441   54.618    6.882     0.295     3.520   387.144  8.921E+09  7.637E+09
   9    0.500   61.500    6.882     0.289     1.796   361.416  6.437E+09  6.233E+09
  10    0.559   68.382    6.882     0.288     0.394   334.750  4.456E+09  4.953E+09
  11    0.618   75.265    6.882     0.290    -0.409   306.876  2.990E+09  3.872E+09
  12    0.676   82.147    6.882     0.296    -0.859   270.162  1.864E+09  2.925E+09
  13    0.735   89.029    6.882     0.304    -1.187   225.059  1.064E+09  2.115E+09
  14    0.794   95.912    6.882     0.313    -1.525   179.877  5.717E+08  1.469E+09
  15    0.853  102.794    6.882     0.324    -1.917   122.196  2.800E+08  7.711E+08
  16    0.912  109.676    6.882     0.338    -2.316    75.727  1.127E+08  4.311E+08
  17    0.971  116.559    6.882     0.357    -2.720    33.558  2.840E+07  1.429E+08


Requested Outputs:


 Col   Parameter  Units     
 ---   ---------- ----------
   0   Time       (s)       
   1   Azimuth    (deg)     
   2   BldPitch1  (deg)     
   3   GenSpeed   (rpm)     
   4   IPDefl1    (m)       
   5   LSSGagMya  (kN-m)    
   6   LSSGagMza  (kN-m)    
   7   OoPDefl1   (m)       
   8   PtfmPitch  (deg)     
   9   PtfmRoll   (deg)     
  10   PtfmSurge  (m)       
  11   PtfmSway   (m)       
  12   RootFxc1   (kN)      
  13   RootFyc1   (kN)      
  14   RootFzc1   (kN)      
  15   RootMxc1   (kN-m)    
  16   RootMyc1   (kN-m)    
  17   RootMzc1   (kN-m)    
  18   RotSpeed   (rpm)     
  19   RotTorq    (kN-m)    
  20   Spn2MLxb1  (kN-m)    
  21   Spn2MLyb1  (kN-m)    
  22   TTDspTwst  (deg)     
  23   TwHt1TPxi  (m)       
  24   TwHt1TPyi  (m)       
  25   TwstDefl1  (deg)     
  26   YawBrFxp   (kN)      
  27   YawBrFyp   (kN)      
  28   YawBrFzp   (kN)      
  29   YawBrMxp   (kN-m)    
  30   YawBrMyp   (kN-m)    
  31   YawBrMzp   (kN-m)    
